k23/sourcebus_22000.trafo_75628932_75628932/Lines.dss
New Line.line_75616437_3104395_3104483 Units=km Length=0.024100000381469727 bus1=3104483.1.2.3 bus2=3104395.1.2.3 switch=n enabled=y phases=3 Linecode=3P_Code0
New Line.line_75619249_3105845_3104246 Units=km Length=0.015899999618530274 bus1=3104246.3 bus2=3105845.3 switch=n enabled=y phases=1 Linecode=1P_Code6
New Line.line_75619416_3104525_3104395 Units=km Length=0.04570000076293945 bus1=3104395.1.2.3 bus2=3104525.1.2.3 switch=n enabled=y phases=3 Linecode=3P_OH_Code1
New Line.line_75619504_3105387_3104471 Units=km Length=0.08859999847412109 bus1=3104471.1 bus2=3105387.1 switch=n enabled=y phases=1 Linecode=1P_OH_Code8
New Line.line_75619518_3105388_3104483 Units=km Length=0.03709999847412109 bus1=3104483.1.2.3 bus2=3105388.1.2.3 switch=n enabled=y phases=3 Linecode=3P_OH_Code2
New Line.line_75620461_3109437_3105139 Units=km Length=0.020700000762939454 bus1=3105139.2 bus2=3109437.2 switch=n enabled=y phases=1 Linecode=1P_Code6
New Line.line_75620833_3109753_3105387 Units=km Length=0.037799999237060546 bus1=3105387.1 bus2=3109753.1 switch=n enabled=y phases=1 Linecode=1P_OH_Code8
New Line.line_75620834_3109754_3104246 Units=km Length=0.0350999984741211 bus1=3104246.2 bus2=3109754.2 switch=n enabled=y phases=1 Linecode=1P_Code6
New Line.line_75620836_3109756_3105388 Units=km Length=0.007800000190734863 bus1=3105388.2 bus2=3109756.2 switch=n enabled=y phases=1 Linecode=1P_Code6
New Line.line_75620837_3109757_3105389 Units=km Length=0.015800000190734863 bus1=3105389.2 bus2=3109757.2 switch=n enabled=y phases=1 Linecode=1P_Code6
New Line.line_75620896_3109807_3105139 Units=km Length=0.02179999923706055 bus1=3105139.2 bus2=3109807.2 switch=n enabled=y phases=1 Linecode=1P_Code6
New Line.line_75620898_3109809_3104525 Units=km Length=0.026799999237060546 bus1=3104525.1 bus2=3109809.1 switch=n enabled=y phases=1 Linecode=1P_Code6
New Line.line_75621014_3109908_3105388 Units=km Length=0.011699999809265137 bus1=3105388.1 bus2=3109908.1 switch=n enabled=y phases=1 Linecode=1P_Code6
New Line.line_75621692_3110501_3105845 Units=km Length=0.028899999618530275 bus1=3105845.3 bus2=3110501.3 switch=n enabled=y phases=1 Linecode=1P_Code6
New Line.line_75622153_3110811_3105139 Units=km Length=0.020799999237060548 bus1=3105139.1.2.3 bus2=3110811.1.2.3 switch=n enabled=y phases=3 Linecode=3P_Code7
New Line.line_75624035_3111722_3106909 Units=km Length=0.023299999237060547 bus1=3106909.2 bus2=3111722.2 switch=n enabled=y phases=1 Linecode=1P_Code6
New Line.line_75624090_3107080_3106909 Units=km Length=0.016399999618530274 bus1=3106909.1.2.3 bus2=3107080.1.2.3 switch=n enabled=y phases=3 Linecode=3P_Code7
New Line.line_75624139_3111775_3104483 Units=km Length=0.013899999618530274 bus1=3104483.1.2.3 bus2=3111775.1.2.3 switch=n enabled=y phases=3 Linecode=3P_Code3
New Line.line_75624224_3111822_3104525 Units=km Length=0.013199999809265136 bus1=3104525.1.2 bus2=3111822.1.2 switch=n enabled=y phases=2 Linecode=2P_Code9
New Line.line_75624225_3111822_3104525 Units=km Length=0.013199999809265136 bus1=3104525.1.2 bus2=3111822.1.2 switch=n enabled=y phases=2 Linecode=2P_Code9
New Line.line_75624483_3111997_3107080 Units=km Length=0.016700000762939454 bus1=3107080.1.2.3 bus2=3111997.1.2.3 switch=n enabled=y phases=3 Linecode=3P_Code7
New Line.line_75624751_3105139_3105389 Units=km Length=0.042700000762939457 bus1=3105389.1.2.3 bus2=3105139.1.2.3 switch=n enabled=y phases=3 Linecode=3P_OH_Code2
New Line.line_75624879_3106909_3104246 Units=km Length=0.05409999847412109 bus1=3104246.1.2.3 bus2=3106909.1.2.3 switch=n enabled=y phases=3 Linecode=3P_Code4
New Line.line_75625011_3112298_3104525 Units=km Length=0.020399999618530274 bus1=3104525.3 bus2=3112298.3 switch=n enabled=y phases=1 Linecode=1P_Code6
New Line.line_75625145_3112359_3105389 Units=km Length=0.027700000762939454 bus1=3105389.1.2.3 bus2=3112359.1.2.3 switch=n enabled=y phases=3 Linecode=3P_Code7
New Line.line_75625434_3104471_3104246 Units=km Length=0.0335 bus1=3104246.1 bus2=3104471.1 switch=n enabled=y phases=1 Linecode=1P_Code5
New Line.line_75625712_3104483_3106909 Units=km Length=0.05120000076293946 bus1=3106909.1.2.3 bus2=3104483.1.2.3 switch=n enabled=y phases=3 Linecode=3P_Code4
New Line.line_75625798_3112702_3104395 Units=km Length=0.01779999923706055 bus1=3104395.1.2.3 bus2=3112702.1.2.3 switch=n enabled=y phases=3 Linecode=3P_OH_Code1
New Line.line_75626253_3112924_3105389 Units=km Length=0.01 bus1=3105389.3 bus2=3112924.3 switch=n enabled=y phases=1 Linecode=1P_Code6
New Line.line_75627045_3113310_3105139 Units=km Length=0.04729999923706055 bus1=3105139.3 bus2=3113310.3 switch=n enabled=y phases=1 Linecode=1P_OH_Code8
New Line.line_75627863_3105389_3105388 Units=km Length=0.04840000152587891 bus1=3105388.1.2.3 bus2=3105389.1.2.3 switch=n enabled=y phases=3 Linecode=3P_OH_Code2
New Line.line_75627903_3113725_3106909 Units=km Length=0.023100000381469726 bus1=3106909.3 bus2=3113725.3 switch=n enabled=y phases=1 Linecode=1P_Code6
New Line.line_75652804_3116692_3106909 Units=km Length=0.011140563765017718 bus1=3106909.1 bus2=3116692.1 switch=n enabled=y phases=1 Linecode=1P_Code5
New Line.line_75652805_3116693_3111822 Units=km Length=0.014755582002852095 bus1=3111822.1 bus2=3116693.1 switch=n enabled=y phases=1 Linecode=1P_Code5
New Line.line_75652806_3116694_3111822 Units=km Length=0.014755582002852095 bus1=3111822.2 bus2=3116694.2 switch=n enabled=y phases=1 Linecode=1P_Code5
New Line.line_75652816_3116704_3112298 Units=km Length=0.008974198752119517 bus1=3112298.3 bus2=3116704.3 switch=n enabled=y phases=1 Linecode=1P_Code5
New Line.line_75652817_3116705_3104483 Units=km Length=0.009365977875411753 bus1=3104483.2 bus2=3116705.2 switch=n enabled=y phases=1 Linecode=1P_Code5
New Line.line_75652818_3116706_3109437 Units=km Length=0.059650512077137625 bus1=3109437.2 bus2=3116706.2 switch=n enabled=y phases=1 Linecode=1P_Code5
New Line.line_75653128_3117016_3105387 Units=km Length=0.026773537798263577 bus1=3105387.1 bus2=3117016.1 switch=n enabled=y phases=1 Linecode=1P_Code5
New Line.line_75653214_3117102_3113725 Units=km Length=0.037089903869919415 bus1=3113725.3 bus2=3117102.3 switch=n enabled=y phases=1 Linecode=1P_Code5
New Line.line_75653244_3117132_3111775 Units=km Length=0.029927504282416657 bus1=3111775.2 bus2=3117132.2 switch=n enabled=y phases=1 Linecode=1P_Code5
New Line.line_75653287_3117175_3112359 Units=km Length=0.031043882750873802 bus1=3112359.1 bus2=3117175.1 switch=n enabled=y phases=1 Linecode=1P_Code5
New Line.line_75653310_3117198_3106909 Units=km Length=0.011140563765017718 bus1=3106909.2 bus2=3117198.2 switch=n enabled=y phases=1 Linecode=1P_Code5
New Line.line_75653314_3117202_3110811 Units=km Length=0.05630187269177838 bus1=3110811.3 bus2=3117202.3 switch=n enabled=y phases=1 Linecode=1P_Code5
New Line.line_75653423_3117311_3109756 Units=km Length=0.010072512348388808 bus1=3109756.2 bus2=3117311.2 switch=n enabled=y phases=1 Linecode=1P_Code5
New Line.line_75653489_3117377_3112298 Units=km Length=0.008974198752119517 bus1=3112298.3 bus2=3117377.3 switch=n enabled=y phases=1 Linecode=1P_Code5
